LAMMPS (2 Aug 2023)
Loaded 1 plugins from /home/venkatan/deepmd-kit/lib/deepmd_lmp
# LAMMPS input script for a custom data setup

units           metal
boundary        p p p
atom_style      atomic

# Define simulation box
region box block 0.0 10.0 0.0 10.0 0.0 10.0
create_box 2 box   # 2 = number of atom types
Created orthogonal box = (0 0 0) to (10 10 10)

# Define masses
mass 1 12.0107    # C
mass 2 1.00794    # H

# Create atoms (atom-ID, atom-type, x, y, z)
create_atoms 1 single 4.34039 4.909915 5.001325
Created 1 atoms
create_atoms 1 single 5.65960 5.090085 4.998665
Created 1 atoms
create_atoms 2 single 6.24080 4.883975 5.891915
Created 1 atoms
create_atoms 2 single 6.16001 5.443825 4.103245
Created 1 atoms
create_atoms 2 single 3.83999 4.556175 5.896755
Created 1 atoms
create_atoms 2 single 3.75992 5.116025 4.108085
Created 1 atoms

# Neighbor and interaction setup
neighbor        1.0 bin
neigh_modify    every 10 delay 0 check no

# Define force field
pair_style deepmd ../../graph.pb
Summary of lammps deepmd module ...
  >>> Info of deepmd-kit:
  installed to:       /home/venkatan/deepmd-kit
  source:
  source branch:      HEAD
  source commit:      c45d372
  source commit at:   2024-07-07 08:06:13 +0000
  support model ver.: 1.1
  build variant:      cuda
  build with tf inc:  /home/venkatan/deepmd-kit/lib/python3.11/site-packages/tensorflow/include;/home/venkatan/deepmd-kit/include
  build with tf lib:  /home/venkatan/deepmd-kit/lib/python3.11/site-packages/tensorflow/libtensorflow_cc.so.2
  set tf intra_op_parallelism_threads: 0
  set tf inter_op_parallelism_threads: 0
  >>> Info of lammps module:
  use deepmd-kit at:  /home/venkatan/deepmd-kitpair_coeff * *

# Define groups
group real_atom type 1 2
6 atoms in group real_atom

# Initialize velocities
velocity real_atom create 300 12345 mom yes rot no

# Minimize to remove overlaps
minimize 1.0e-4 1.0e-6 1000 10000

CITE-CITE-CITE-CITE-CITE-CITE-CITE-CITE-CITE-CITE-CITE-CITE-CITE

Your simulation uses code contributions which should be cited:

- USER-DEEPMD package:

@article{Wang_ComputPhysCommun_2018_v228_p178,
  author = {Wang, Han and Zhang, Linfeng and Han, Jiequn and E, Weinan},
  doi = {10.1016/j.cpc.2018.03.016},
  url = {https://doi.org/10.1016/j.cpc.2018.03.016},
  year = 2018,
  month = {jul},
  publisher = {Elsevier {BV}},
  volume = 228,
  journal = {Comput. Phys. Commun.},
  title = {{DeePMD-kit: A deep learning package for many-body potential energy representation and molecular dynamics}},
  pages = {178--184}
}
@misc{Zeng_JChemPhys_2023_v159_p054801,
  title  = {{DeePMD-kit v2: A software package for deep potential models}},
  author =   {Jinzhe Zeng and Duo Zhang and Denghui Lu and Pinghui Mo and Zeyu Li
         and Yixiao Chen and Mari{\'a}n Rynik and Li'ang Huang and Ziyao Li and
         Shaochen Shi and Yingze Wang and Haotian Ye and Ping Tuo and Jiabin
         Yang and Ye Ding and Yifan Li and Davide Tisi and Qiyu Zeng and Han
         Bao and Yu Xia and Jiameng Huang and Koki Muraoka and Yibo Wang and
         Junhan Chang and Fengbo Yuan and Sigbj{\o}rn L{\o}land Bore and Chun
         Cai and Yinnian Lin and Bo Wang and Jiayan Xu and Jia-Xin Zhu and
         Chenxing Luo and Yuzhi Zhang and Rhys E A Goodall and Wenshuo Liang
         and Anurag Kumar Singh and Sikai Yao and Jingchao Zhang and Renata
         Wentzcovitch and Jiequn Han and Jie Liu and Weile Jia and Darrin M
         York and Weinan E and Roberto Car and Linfeng Zhang and Han Wang},
  journal =  {J. Chem. Phys.},
  volume =   159,
  issue =    5,
  year =    2023,
  pages  =   054801,
  doi =      {10.1063/5.0155600},
}

CITE-CITE-CITE-CITE-CITE-CITE-CITE-CITE-CITE-CITE-CITE-CITE-CITE

Generated 0 of 1 mixed pair_coeff terms from geometric mixing rule
Step          Temp          E_pair         E_mol          TotEng         Press
0   300           -373.46152      0             -373.26763      901.90605
Loop time of 0.0063933 on 1 procs for 1 steps with 6 atoms

Minimization stats:
  Stopping criterion = energy tolerance
  Energy initial, next-to-last, final =
  Force two-norm initial, final = 0.64558959 0.63761791
  Force max component initial, final = 0.28590009 0.36168362
  Final line search alpha, max atom move = 0.34977254 0.126507
  Iterations, force evaluations = 1 2

# Thermostat setup
compute real_temp real_atom temp
compute real_press all pressure real_temp
fix 1 real_atom nvt temp 300.0 300.0 0.1
fix_modify 1 temp real_temp

# Thermodynamic output
timestep 0.001
thermo 2
thermo_style custom step ke pe etotal temp press vol
thermo_modify temp real_temp press real_press

# Output thermodynamic data to a separate file
fix thermo_print all print 2 "$(step) $(temp) $(press) $(ke) $(pe) $(etotal)" file thermo_data_NVT300.out screen no title "# Step Temp Press KE PE Total_Energy"

# Dump configuration
dump 1 real_atom custom 2 ethylene_NVT300.dump id type x y z vx vy vz

# Run the first 19000 steps without writing restart files
run 49550
Generated 0 of 1 mixed pair_coeff terms from geometric mixing rule
Step         KinEng         PotEng         TotEng          Temp          Press          Volume
1   0.19389022    -373.46524     -373.27135      300            788.89372      1000
Averages over the last 12389 of 24777 rows, steps 24776 to 49551:
KinEng PotEng TotEng Temp Press Volume
0.191304 -373.404 -373.212 295.998 -5.21526 1000
Loop time of 88.0733 on 1 procs for 49550 steps with 6 atoms

# Write restart files every 100 steps for the final 1000 steps
restart 5 ./restart_NVT/restart_NVT300.*.bin
run 50
Generated 0 of 1 mixed pair_coeff terms from geometric mixing rule
Step         KinEng         PotEng         TotEng          Temp          Press          Volume
49551   0.18372796    -373.3565      -373.17278      284.27628     -600.88752      1000
Loop time of 0.0917357 on 1 procs for 50 steps with 6 atoms

write_data out.lmp
System init for write_data ...
Generated 0 of 1 mixed pair_coeff terms from geometric mixing rule
